Version 4
SHEET 1 1772 1396
WIRE -160 304 -192 304
WIRE 16 304 -16 304
WIRE -192 368 -192 304
WIRE -16 368 -16 304
WIRE -192 496 -192 448
WIRE -16 496 -16 448
WIRE 992 576 832 576
WIRE 1136 576 1136 512
WIRE 1136 576 992 576
WIRE 1280 576 1136 576
WIRE 1504 576 1280 576
WIRE 832 640 832 576
WIRE 1504 640 1504 576
WIRE 992 656 992 576
WIRE 1280 656 1280 576
WIRE 192 688 112 688
WIRE 240 688 192 688
WIRE 352 688 320 688
WIRE 656 688 576 688
WIRE 768 688 736 688
WIRE 1600 688 1568 688
WIRE 1744 688 1680 688
WIRE 192 736 192 688
WIRE -112 784 -160 784
WIRE 32 784 -32 784
WIRE 128 784 32 784
WIRE 832 800 832 752
WIRE 992 800 992 720
WIRE 992 800 832 800
WIRE 1280 800 1280 720
WIRE 1504 800 1504 736
WIRE 1504 800 1280 800
WIRE 576 816 576 688
WIRE 576 816 544 816
WIRE 32 832 32 784
WIRE 832 880 832 800
WIRE 1504 880 1504 800
WIRE 992 896 992 800
WIRE 1280 896 1280 800
WIRE 32 928 32 912
WIRE 192 928 192 832
WIRE 656 928 608 928
WIRE 768 928 736 928
WIRE 1600 928 1568 928
WIRE 1712 928 1680 928
WIRE 608 1072 608 928
WIRE 608 1072 512 1072
WIRE 832 1072 832 976
WIRE 992 1072 992 960
WIRE 992 1072 832 1072
WIRE 1136 1072 992 1072
WIRE 1280 1072 1280 960
WIRE 1280 1072 1136 1072
WIRE 1504 1072 1504 976
WIRE 1504 1072 1280 1072
WIRE 512 1088 512 1072
WIRE 192 1104 112 1104
WIRE 240 1104 192 1104
WIRE 352 1104 320 1104
WIRE 1136 1120 1136 1072
WIRE 192 1152 192 1104
WIRE 608 1152 608 1072
WIRE 1744 1152 1744 688
WIRE 1744 1152 608 1152
WIRE 576 1168 576 816
WIRE 1712 1168 1712 928
WIRE 1712 1168 576 1168
WIRE -112 1200 -160 1200
WIRE 32 1200 -32 1200
WIRE 128 1200 32 1200
WIRE 32 1248 32 1200
WIRE 32 1344 32 1328
WIRE 192 1344 192 1248
FLAG -192 496 0
FLAG -160 304 6v
FLAG -16 496 0
FLAG 16 304 PWM
FLAG -160 784 PWM
FLAG 192 928 0
FLAG 352 688 6v
FLAG 32 928 0
FLAG 112 688 OUT_1
FLAG 192 1344 0
FLAG 352 1104 6v
FLAG 32 1344 0
FLAG -160 1200 OUT_1
FLAG 112 1104 LOAD
FLAG 1136 1120 0
FLAG 1136 512 6v
FLAG 544 816 LOAD
FLAG 512 1088 0
SYMBOL npn 128 736 R0
SYMATTR InstName Q1
SYMBOL voltage -192 352 R0
WINDOW 123 0 0 Left 0
WINDOW 39 0 0 Left 0
SYMATTR InstName V3
SYMATTR Value 6
SYMBOL voltage -16 352 R0
WINDOW 123 0 0 Left 0
WINDOW 39 0 0 Left 0
SYMATTR InstName V4
SYMATTR Value PULSE(0 3.3 0 0.001 0.001 0.05 0.1)
SYMBOL res -16 768 R90
WINDOW 0 0 56 VBottom 2
WINDOW 3 32 56 VTop 2
SYMATTR InstName R5
SYMATTR Value 100
SYMBOL res 16 816 R0
SYMATTR InstName R6
SYMATTR Value 1k
SYMBOL res 336 672 R90
WINDOW 0 0 56 VBottom 2
WINDOW 3 32 56 VTop 2
SYMATTR InstName R7
SYMATTR Value 330
SYMBOL npn 128 1152 R0
SYMATTR InstName Q2
SYMBOL res -16 1184 R90
WINDOW 0 0 56 VBottom 2
WINDOW 3 32 56 VTop 2
SYMATTR InstName R1
SYMATTR Value 100
SYMBOL res 16 1232 R0
SYMATTR InstName R2
SYMATTR Value 1k
SYMBOL res 336 1088 R90
WINDOW 0 0 56 VBottom 2
WINDOW 3 32 56 VTop 2
SYMATTR InstName R3
SYMATTR Value 330
SYMBOL diode 1008 720 R180
WINDOW 0 24 64 Left 2
WINDOW 3 24 0 Left 2
SYMATTR InstName D1
SYMBOL diode 1008 960 R180
WINDOW 0 24 64 Left 2
WINDOW 3 24 0 Left 2
SYMATTR InstName D2
SYMBOL diode 1296 720 R180
WINDOW 0 24 64 Left 2
WINDOW 3 24 0 Left 2
SYMATTR InstName D3
SYMBOL diode 1296 960 R180
WINDOW 0 24 64 Left 2
WINDOW 3 24 0 Left 2
SYMATTR InstName D4
SYMBOL npn 768 640 R0
SYMATTR InstName Q3
SYMBOL npn 768 880 R0
SYMATTR InstName Q4
SYMBOL npn 1568 640 M0
SYMATTR InstName Q5
SYMBOL npn 1568 880 M0
SYMATTR InstName Q6
SYMBOL res 752 672 R90
WINDOW 0 0 56 VBottom 2
WINDOW 3 32 56 VTop 2
SYMATTR InstName R4
SYMATTR Value 330
SYMBOL res 752 912 R90
WINDOW 0 0 56 VBottom 2
WINDOW 3 32 56 VTop 2
SYMATTR InstName R8
SYMATTR Value 330
SYMBOL res 1696 672 R90
WINDOW 0 0 56 VBottom 2
WINDOW 3 32 56 VTop 2
SYMATTR InstName R9
SYMATTR Value 330
SYMBOL res 1696 912 R90
WINDOW 0 0 56 VBottom 2
WINDOW 3 32 56 VTop 2
SYMATTR InstName R10
SYMATTR Value 330
TEXT -248 160 Left 2 !.lib C:\\Users\\fredy\\AppData\\Local\\LTspice\\lib\\sym\\TL081\\TL081.301
TEXT -224 520 Left 2 !.tran 2
TEXT -248 104 Left 5 ;Driver Motores DC
TEXT -208 224 Left 2 ;Fuentes de alimentación
TEXT -216 616 Left 2 ;Etapa 1:
TEXT -216 1032 Left 2 ;Etapa 2:
RECTANGLE Normal 496 576 -256 192
RECTANGLE Normal 416 976 -256 592
RECTANGLE Normal 416 1392 -256 1008
